.subckt ss26 1 2
ddio 1 2 legd
dgr 1 2 grd
.model legd d is = 1E-015 n = 1.16314 rs = 0.00850939
+ eg = 1.8 xti = 4
+ cjo = 3.9907E-010 vj = 0.999614 m = 0.485293 fc = 0.5
+ tt = 1.4427E-009 bv = 66 ibv = 0.1 af = 1 kf = 0
.model grd d is = 6.46582E-005 n = 1.79066 rs = 0.0204223
+ eg = 0.755351 xti = 1.38933
.ends

.MODEL MBRS130LT3 D (IS= 8.007E-08
+ RS= 0.02018
+ N= 1.027
+ TT= 1E-12
+ CJO= 2.433E-10
+ VJ= 0.5002
+ M= 0.4559
+ EG= 0.6
+ XTI= 2
+ FC= 0.5
+ BV= 39.8
+ IBV= 0.007
+ KF= 0
+ AF= 1)

.MODEL MBRL120 D(IS=1.52E-8 N=0.638 BV=20
+ IBV=0.0004 RS=0.0406 CJ=3E-10 VJ=0.374 MJ=0.379
+ TT=0.0)

 .MODEL 1N5817 d (  
+IS=2.93092e-08 RS=0.0524736 N=1.33711 EG=0.1  
+XTI=0.325839 BV=20 IBV=0.001 CJO=2.01549e-10  
+VJ=8.0542 M=0.9 FC=0.5 TT=1.47806e-08  
+KF=0 AF=1)  
 
.MODEL 1N5818 d (  
+IS=4.4214e-08 RS=0.0531374 N=1.37435 EG=0.6  
+XTI=0.5 BV=30 IBV=0.001 CJO=1.98376e-10  
+VJ=1.5 M=0.54046 FC=0.5 TT=2.6273e-08  
+KF=0 AF=1)

.MODEL 1N5819 d ( 
+IS=1.19279e-8 RS=0.0625421 N=1.16517 EG=1.3  
+XTI=3.22098 BV=40 IBV=0.001 CJO=1.50114e-10  
+VJ=1.5 M=0.590203 FC=0.5 TT=2.6273e-08  
+KF=0 AF=1) 

.MODEL MBR360 D(IS=1.762772E-14 N=1.103602 BV=60 IBV=100.000001p RS=53.064197m 
+ CJO=319.770094p VJ=4.103804 M=878.749119m EG=1.1 XTI=2 RL=8.290467MEG) 

